support/cimhub_docker/python_scripts/dss/master_base.dss
clear
new Circuit.source phases=3 bus1=n650 basekv=4.160 pu=1.00000 angle=30.00000 r0=0.00024 x0=0.00071 r1=0.00021 x1=0.00084





new Linecode.1p_ug_code4 nphases=1 units=mi rmatrix=[0.405140 ] xmatrix=[0.410718 ] cmatrix=[3.65371 ]
new Linecode.2p_code10 nphases=2 units=mi rmatrix=[0.139476 | 0.0467868 0.140665 ] xmatrix=[0.328574 | 0.117318 0.324642 ] cmatrix=[4.13564 | -0.852854 4.18011 ]
new Linecode.2p_oh_code0 nphases=2 units=mi rmatrix=[0.139476 | 0.0467868 0.140665 ] xmatrix=[0.328574 | 0.117318 0.324642 ] cmatrix=[4.13564 | -0.852854 4.18011 ]
new Linecode.3p_code7 nphases=3 units=mi rmatrix=[0.139476 | 0.0475488 0.142220 | 0.0467868 0.0481584 0.140665 ] xmatrix=[0.328574 | 0.152918 0.319491 | 0.117318 0.129113 0.324642 ] cmatrix=[4.58927 | -1.48103 4.83537 | -0.564473 -0.941462 4.36339 ]
new Linecode.3p_oh_code6 nphases=3 units=mi rmatrix=[0.139476 | 0.0475488 0.142220 | 0.0467868 0.0481584 0.140665 ] xmatrix=[0.328574 | 0.152918 0.319491 | 0.117318 0.129113 0.324642 ] cmatrix=[4.58927 | -1.48103 4.83537 | -0.564473 -0.941462 4.36339 ]
new Linecode.3p_oh_code1 nphases=3 units=mi rmatrix=[0.139476 | 0.0475488 0.142220 | 0.0467868 0.0481584 0.140665 ] xmatrix=[0.328574 | 0.152918 0.319491 | 0.117318 0.129113 0.324642 ] cmatrix=[4.58927 | -1.48103 4.83537 | -0.564473 -0.941462 4.36339 ]
new Linecode.3p_ug_code5 nphases=3 units=mi rmatrix=[0.139476 | 0.0475488 0.142220 | 0.0467868 0.0481584 0.140665 ] xmatrix=[0.328574 | 0.152918 0.319491 | 0.117318 0.129113 0.324642 ] cmatrix=[4.58927 | -1.48103 4.83537 | -0.564473 -0.941462 4.36339 ]
new Linecode.1p_oh_code3 nphases=1 units=mi rmatrix=[0.405140 ] xmatrix=[0.410718 ] cmatrix=[3.65371 ]
new Linecode.1p_oh_code9 nphases=1 units=mi rmatrix=[0.405140 ] xmatrix=[0.410718 ] cmatrix=[3.65371 ]
new Linecode.1p_oh_code8 nphases=1 units=mi rmatrix=[0.405140 ] xmatrix=[0.410718 ] cmatrix=[3.65371 ]
new Linecode.2p_oh_code2 nphases=2 units=mi rmatrix=[0.139476 | 0.0467868 0.140665 ] xmatrix=[0.328574 | 0.117318 0.324642 ] cmatrix=[4.13564 | -0.852854 4.18011 ]


new Xfmrcode.cimxfmrcode_xfmr_611_c_2 windings=3 phases=1 xhl=2.040000 xht=2.040000 xlt=0.136000 %imag=0.000 %noloadloss=0.000
~ wdg=1 conn=w kv=2.400 kva=10000.0 %r=0.003000
~ wdg=2 conn=w kv=0.120 kva=1000.0 %r=0.000600
~ wdg=3 conn=w kv=0.120 kva=1000.0 %r=0.000600
new Xfmrcode.cimxfmrcode_xfmr_684_c_2 windings=3 phases=1 xhl=2.040000 xht=2.040000 xlt=0.136000 %imag=0.000 %noloadloss=0.000
~ wdg=1 conn=w kv=2.400 kva=10000.0 %r=0.003000
~ wdg=2 conn=w kv=0.120 kva=1000.0 %r=0.000600
~ wdg=3 conn=w kv=0.120 kva=1000.0 %r=0.000600
new Xfmrcode.cimxfmrcode_xfmr_611_c_1 windings=3 phases=1 xhl=2.040000 xht=2.040000 xlt=0.136000 %imag=0.000 %noloadloss=0.000
~ wdg=1 conn=w kv=2.400 kva=10000.0 %r=0.003000
~ wdg=2 conn=w kv=0.120 kva=1000.0 %r=0.000600
~ wdg=3 conn=w kv=0.120 kva=1000.0 %r=0.000600
new Xfmrcode.cimxfmrcode_xfmr_684_c_1 windings=3 phases=1 xhl=2.040000 xht=2.040000 xlt=0.136000 %imag=0.000 %noloadloss=0.000
~ wdg=1 conn=w kv=2.400 kva=10000.0 %r=0.003000
~ wdg=2 conn=w kv=0.120 kva=1000.0 %r=0.000600
~ wdg=3 conn=w kv=0.120 kva=1000.0 %r=0.000600
new Xfmrcode.cimxfmrcode_xfmr_611_c_4 windings=3 phases=1 xhl=2.040000 xht=2.040000 xlt=0.136000 %imag=0.000 %noloadloss=0.000
~ wdg=1 conn=w kv=2.400 kva=10000.0 %r=0.003000
~ wdg=2 conn=w kv=0.120 kva=1000.0 %r=0.000600
~ wdg=3 conn=w kv=0.120 kva=1000.0 %r=0.000600
new Xfmrcode.cimxfmrcode_xfmr_671_a_5 windings=3 phases=1 xhl=2.040000 xht=2.040000 xlt=0.136000 %imag=0.000 %noloadloss=0.000
~ wdg=1 conn=w kv=2.400 kva=10000.0 %r=0.003000
~ wdg=2 conn=w kv=0.120 kva=1000.0 %r=0.000600
~ wdg=3 conn=w kv=0.120 kva=1000.0 %r=0.000600
new Xfmrcode.cimxfmrcode_xfmr_684_c_4 windings=3 phases=1 xhl=2.040000 xht=2.040000 xlt=0.136000 %imag=0.000 %noloadloss=0.000
~ wdg=1 conn=w kv=2.400 kva=10000.0 %r=0.003000
~ wdg=2 conn=w kv=0.120 kva=1000.0 %r=0.000600
~ wdg=3 conn=w kv=0.120 kva=1000.0 %r=0.000600
new Xfmrcode.cimxfmrcode_xfmr_611_c_3 windings=3 phases=1 xhl=2.040000 xht=2.040000 xlt=0.136000 %imag=0.000 %noloadloss=0.000
~ wdg=1 conn=w kv=2.400 kva=10000.0 %r=0.003000
~ wdg=2 conn=w kv=0.120 kva=1000.0 %r=0.000600
~ wdg=3 conn=w kv=0.120 kva=1000.0 %r=0.000600
new Xfmrcode.cimxfmrcode_xfmr_684_c_3 windings=3 phases=1 xhl=2.040000 xht=2.040000 xlt=0.136000 %imag=0.000 %noloadloss=0.000
~ wdg=1 conn=w kv=2.400 kva=10000.0 %r=0.003000
~ wdg=2 conn=w kv=0.120 kva=1000.0 %r=0.000600
~ wdg=3 conn=w kv=0.120 kva=1000.0 %r=0.000600
new Xfmrcode.cimxfmrcode_xfmr_633_b_4 windings=3 phases=1 xhl=2.040000 xht=2.040000 xlt=0.136000 %imag=0.000 %noloadloss=0.000
~ wdg=1 conn=w kv=2.400 kva=10000.0 %r=0.003000
~ wdg=2 conn=w kv=0.120 kva=1000.0 %r=0.000600
~ wdg=3 conn=w kv=0.120 kva=1000.0 %r=0.000600
new Xfmrcode.cimxfmrcode_xfmr_671_a_3 windings=3 phases=1 xhl=2.040000 xht=2.040000 xlt=0.136000 %imag=0.000 %noloadloss=0.000
~ wdg=1 conn=w kv=2.400 kva=10000.0 %r=0.003000
~ wdg=2 conn=w kv=0.120 kva=1000.0 %r=0.000600
~ wdg=3 conn=w kv=0.120 kva=1000.0 %r=0.000600
new Xfmrcode.cimxfmrcode_xfmr_611_c_5 windings=3 phases=1 xhl=2.040000 xht=2.040000 xlt=0.136000 %imag=0.000 %noloadloss=0.000
~ wdg=1 conn=w kv=2.400 kva=10000.0 %r=0.003000
~ wdg=2 conn=w kv=0.120 kva=1000.0 %r=0.000600
~ wdg=3 conn=w kv=0.120 kva=1000.0 %r=0.000600
new Xfmrcode.cimxfmrcode_xfmr_633_b_5 windings=3 phases=1 xhl=2.040000 xht=2.040000 xlt=0.136000 %imag=0.000 %noloadloss=0.000
~ wdg=1 conn=w kv=2.400 kva=10000.0 %r=0.003000
~ wdg=2 conn=w kv=0.120 kva=1000.0 %r=0.000600
~ wdg=3 conn=w kv=0.120 kva=1000.0 %r=0.000600
new Xfmrcode.cimxfmrcode_xfmr_671_a_4 windings=3 phases=1 xhl=2.040000 xht=2.040000 xlt=0.136000 %imag=0.000 %noloadloss=0.000
~ wdg=1 conn=w kv=2.400 kva=10000.0 %r=0.003000
~ wdg=2 conn=w kv=0.120 kva=1000.0 %r=0.000600
~ wdg=3 conn=w kv=0.120 kva=1000.0 %r=0.000600
new Xfmrcode.cimxfmrcode_xfmr_633_b_2 windings=3 phases=1 xhl=2.040000 xht=2.040000 xlt=0.136000 %imag=0.000 %noloadloss=0.000
~ wdg=1 conn=w kv=2.400 kva=10000.0 %r=0.003000
~ wdg=2 conn=w kv=0.120 kva=1000.0 %r=0.000600
~ wdg=3 conn=w kv=0.120 kva=1000.0 %r=0.000600
new Xfmrcode.cimxfmrcode_xfmr_671_a_1 windings=3 phases=1 xhl=2.040000 xht=2.040000 xlt=0.136000 %imag=0.000 %noloadloss=0.000
~ wdg=1 conn=w kv=2.400 kva=10000.0 %r=0.003000
~ wdg=2 conn=w kv=0.120 kva=1000.0 %r=0.000600
~ wdg=3 conn=w kv=0.120 kva=1000.0 %r=0.000600
new Xfmrcode.cimxfmrcode_xfmr_633_b_3 windings=3 phases=1 xhl=2.040000 xht=2.040000 xlt=0.136000 %imag=0.000 %noloadloss=0.000
~ wdg=1 conn=w kv=2.400 kva=10000.0 %r=0.003000
~ wdg=2 conn=w kv=0.120 kva=1000.0 %r=0.000600
~ wdg=3 conn=w kv=0.120 kva=1000.0 %r=0.000600
new Xfmrcode.cimxfmrcode_xfmr_671_a_2 windings=3 phases=1 xhl=2.040000 xht=2.040000 xlt=0.136000 %imag=0.000 %noloadloss=0.000
~ wdg=1 conn=w kv=2.400 kva=10000.0 %r=0.003000
~ wdg=2 conn=w kv=0.120 kva=1000.0 %r=0.000600
~ wdg=3 conn=w kv=0.120 kva=1000.0 %r=0.000600
new Xfmrcode.cimxfmrcode_xfmr_633_b_1 windings=3 phases=1 xhl=2.040000 xht=2.040000 xlt=0.136000 %imag=0.000 %noloadloss=0.000
~ wdg=1 conn=w kv=2.400 kva=10000.0 %r=0.003000
~ wdg=2 conn=w kv=0.120 kva=1000.0 %r=0.000600
~ wdg=3 conn=w kv=0.120 kva=1000.0 %r=0.000600
new Xfmrcode.cimxfmrcode_xfmr_684_c_5 windings=3 phases=1 xhl=2.040000 xht=2.040000 xlt=0.136000 %imag=0.000 %noloadloss=0.000
~ wdg=1 conn=w kv=2.400 kva=10000.0 %r=0.003000
~ wdg=2 conn=w kv=0.120 kva=1000.0 %r=0.000600
~ wdg=3 conn=w kv=0.120 kva=1000.0 %r=0.000600
new Xfmrcode.cimxfmrcode_xfmr_645_b_5 windings=3 phases=1 xhl=2.040000 xht=2.040000 xlt=0.136000 %imag=0.000 %noloadloss=0.000
~ wdg=1 conn=w kv=2.400 kva=10000.0 %r=0.003000
~ wdg=2 conn=w kv=0.120 kva=1000.0 %r=0.000600
~ wdg=3 conn=w kv=0.120 kva=1000.0 %r=0.000600
new Xfmrcode.cimxfmrcode_xfmr_645_b_4 windings=3 phases=1 xhl=2.040000 xht=2.040000 xlt=0.136000 %imag=0.000 %noloadloss=0.000
~ wdg=1 conn=w kv=2.400 kva=10000.0 %r=0.003000
~ wdg=2 conn=w kv=0.120 kva=1000.0 %r=0.000600
~ wdg=3 conn=w kv=0.120 kva=1000.0 %r=0.000600
new Xfmrcode.cimxfmrcode_xfmr_645_b_3 windings=3 phases=1 xhl=2.040000 xht=2.040000 xlt=0.136000 %imag=0.000 %noloadloss=0.000
~ wdg=1 conn=w kv=2.400 kva=10000.0 %r=0.003000
~ wdg=2 conn=w kv=0.120 kva=1000.0 %r=0.000600
~ wdg=3 conn=w kv=0.120 kva=1000.0 %r=0.000600
new Xfmrcode.cimxfmrcode_xfmr_645_b_2 windings=3 phases=1 xhl=2.040000 xht=2.040000 xlt=0.136000 %imag=0.000 %noloadloss=0.000
~ wdg=1 conn=w kv=2.400 kva=10000.0 %r=0.003000
~ wdg=2 conn=w kv=0.120 kva=1000.0 %r=0.000600
~ wdg=3 conn=w kv=0.120 kva=1000.0 %r=0.000600
new Xfmrcode.cimxfmrcode_xfmr_645_b_1 windings=3 phases=1 xhl=2.040000 xht=2.040000 xlt=0.136000 %imag=0.000 %noloadloss=0.000
~ wdg=1 conn=w kv=2.400 kva=10000.0 %r=0.003000
~ wdg=2 conn=w kv=0.120 kva=1000.0 %r=0.000600
~ wdg=3 conn=w kv=0.120 kva=1000.0 %r=0.000600
new Xfmrcode.cimxfmrcode_xfmr_692_b_5 windings=3 phases=1 xhl=2.040000 xht=2.040000 xlt=0.136000 %imag=0.000 %noloadloss=0.000
~ wdg=1 conn=w kv=2.400 kva=10000.0 %r=0.003000
~ wdg=2 conn=w kv=0.120 kva=1000.0 %r=0.000600
~ wdg=3 conn=w kv=0.120 kva=1000.0 %r=0.000600
new Xfmrcode.cimxfmrcode_xfmr_692_b_2 windings=3 phases=1 xhl=2.040000 xht=2.040000 xlt=0.136000 %imag=0.000 %noloadloss=0.000
~ wdg=1 conn=w kv=2.400 kva=10000.0 %r=0.003000
~ wdg=2 conn=w kv=0.120 kva=1000.0 %r=0.000600
~ wdg=3 conn=w kv=0.120 kva=1000.0 %r=0.000600
new Xfmrcode.cimxfmrcode_xfmr_692_b_1 windings=3 phases=1 xhl=2.040000 xht=2.040000 xlt=0.136000 %imag=0.000 %noloadloss=0.000
~ wdg=1 conn=w kv=2.400 kva=10000.0 %r=0.003000
~ wdg=2 conn=w kv=0.120 kva=1000.0 %r=0.000600
~ wdg=3 conn=w kv=0.120 kva=1000.0 %r=0.000600
new Xfmrcode.cimxfmrcode_xfmr_692_b_4 windings=3 phases=1 xhl=2.040000 xht=2.040000 xlt=0.136000 %imag=0.000 %noloadloss=0.000
~ wdg=1 conn=w kv=2.400 kva=10000.0 %r=0.003000
~ wdg=2 conn=w kv=0.120 kva=1000.0 %r=0.000600
~ wdg=3 conn=w kv=0.120 kva=1000.0 %r=0.000600
new Xfmrcode.cimxfmrcode_xfmr_692_b_3 windings=3 phases=1 xhl=2.040000 xht=2.040000 xlt=0.136000 %imag=0.000 %noloadloss=0.000
~ wdg=1 conn=w kv=2.400 kva=10000.0 %r=0.003000
~ wdg=2 conn=w kv=0.120 kva=1000.0 %r=0.000600
~ wdg=3 conn=w kv=0.120 kva=1000.0 %r=0.000600
new Xfmrcode.cimxfmrcode_xfmr_652_a_1 windings=3 phases=1 xhl=2.040000 xht=2.040000 xlt=0.136000 %imag=0.000 %noloadloss=0.000
~ wdg=1 conn=w kv=2.400 kva=10000.0 %r=0.003000
~ wdg=2 conn=w kv=0.120 kva=1000.0 %r=0.000600
~ wdg=3 conn=w kv=0.120 kva=1000.0 %r=0.000600
new Xfmrcode.cimxfmrcode_xfmr_652_a_4 windings=3 phases=1 xhl=2.040000 xht=2.040000 xlt=0.136000 %imag=0.000 %noloadloss=0.000
~ wdg=1 conn=w kv=2.400 kva=10000.0 %r=0.003000
~ wdg=2 conn=w kv=0.120 kva=1000.0 %r=0.000600
~ wdg=3 conn=w kv=0.120 kva=1000.0 %r=0.000600
new Xfmrcode.cimxfmrcode_xfmr_652_a_5 windings=3 phases=1 xhl=2.040000 xht=2.040000 xlt=0.136000 %imag=0.000 %noloadloss=0.000
~ wdg=1 conn=w kv=2.400 kva=10000.0 %r=0.003000
~ wdg=2 conn=w kv=0.120 kva=1000.0 %r=0.000600
~ wdg=3 conn=w kv=0.120 kva=1000.0 %r=0.000600
new Xfmrcode.cimxfmrcode_xfmr_652_a_2 windings=3 phases=1 xhl=2.040000 xht=2.040000 xlt=0.136000 %imag=0.000 %noloadloss=0.000
~ wdg=1 conn=w kv=2.400 kva=10000.0 %r=0.003000
~ wdg=2 conn=w kv=0.120 kva=1000.0 %r=0.000600
~ wdg=3 conn=w kv=0.120 kva=1000.0 %r=0.000600
new Xfmrcode.cimxfmrcode_xfmr_652_a_3 windings=3 phases=1 xhl=2.040000 xht=2.040000 xlt=0.136000 %imag=0.000 %noloadloss=0.000
~ wdg=1 conn=w kv=2.400 kva=10000.0 %r=0.003000
~ wdg=2 conn=w kv=0.120 kva=1000.0 %r=0.000600
~ wdg=3 conn=w kv=0.120 kva=1000.0 %r=0.000600
new Xfmrcode.cimxfmrcode_xfmr_671_b_4 windings=3 phases=1 xhl=2.040000 xht=2.040000 xlt=0.136000 %imag=0.000 %noloadloss=0.000
~ wdg=1 conn=w kv=2.400 kva=10000.0 %r=0.003000
~ wdg=2 conn=w kv=0.120 kva=1000.0 %r=0.000600
~ wdg=3 conn=w kv=0.120 kva=1000.0 %r=0.000600
new Xfmrcode.cimxfmrcode_xfmr_671_b_5 windings=3 phases=1 xhl=2.040000 xht=2.040000 xlt=0.136000 %imag=0.000 %noloadloss=0.000
~ wdg=1 conn=w kv=2.400 kva=10000.0 %r=0.003000
~ wdg=2 conn=w kv=0.120 kva=1000.0 %r=0.000600
~ wdg=3 conn=w kv=0.120 kva=1000.0 %r=0.000600
new Xfmrcode.cimxfmrcode_xfmr_633_a_5 windings=3 phases=1 xhl=2.040000 xht=2.040000 xlt=0.136000 %imag=0.000 %noloadloss=0.000
~ wdg=1 conn=w kv=2.400 kva=10000.0 %r=0.003000
~ wdg=2 conn=w kv=0.120 kva=1000.0 %r=0.000600
~ wdg=3 conn=w kv=0.120 kva=1000.0 %r=0.000600
new Xfmrcode.cimxfmrcode_xfmr_671_b_2 windings=3 phases=1 xhl=2.040000 xht=2.040000 xlt=0.136000 %imag=0.000 %noloadloss=0.000
~ wdg=1 conn=w kv=2.400 kva=10000.0 %r=0.003000
~ wdg=2 conn=w kv=0.120 kva=1000.0 %r=0.000600
~ wdg=3 conn=w kv=0.120 kva=1000.0 %r=0.000600
new Xfmrcode.cimxfmrcode_xfmr_671_b_3 windings=3 phases=1 xhl=2.040000 xht=2.040000 xlt=0.136000 %imag=0.000 %noloadloss=0.000
~ wdg=1 conn=w kv=2.400 kva=10000.0 %r=0.003000
~ wdg=2 conn=w kv=0.120 kva=1000.0 %r=0.000600
~ wdg=3 conn=w kv=0.120 kva=1000.0 %r=0.000600
new Xfmrcode.cimxfmrcode_xfmr_633_a_3 windings=3 phases=1 xhl=2.040000 xht=2.040000 xlt=0.136000 %imag=0.000 %noloadloss=0.000
~ wdg=1 conn=w kv=2.400 kva=10000.0 %r=0.003000
~ wdg=2 conn=w kv=0.120 kva=1000.0 %r=0.000600
~ wdg=3 conn=w kv=0.120 kva=1000.0 %r=0.000600
new Xfmrcode.cimxfmrcode_xfmr_632_c_1 windings=3 phases=1 xhl=2.040000 xht=2.040000 xlt=0.136000 %imag=0.000 %noloadloss=0.000
~ wdg=1 conn=w kv=2.400 kva=10000.0 %r=0.003000
~ wdg=2 conn=w kv=0.120 kva=1000.0 %r=0.000600
~ wdg=3 conn=w kv=0.120 kva=1000.0 %r=0.000600
new Xfmrcode.cimxfmrcode_xfmr_633_a_4 windings=3 phases=1 xhl=2.040000 xht=2.040000 xlt=0.136000 %imag=0.000 %noloadloss=0.000
~ wdg=1 conn=w kv=2.400 kva=10000.0 %r=0.003000
~ wdg=2 conn=w kv=0.120 kva=1000.0 %r=0.000600
~ wdg=3 conn=w kv=0.120 kva=1000.0 %r=0.000600
new Xfmrcode.cimxfmrcode_xfmr_671_b_1 windings=3 phases=1 xhl=2.040000 xht=2.040000 xlt=0.136000 %imag=0.000 %noloadloss=0.000
~ wdg=1 conn=w kv=2.400 kva=10000.0 %r=0.003000
~ wdg=2 conn=w kv=0.120 kva=1000.0 %r=0.000600
~ wdg=3 conn=w kv=0.120 kva=1000.0 %r=0.000600
new Xfmrcode.cimxfmrcode_xfmr_632_c_2 windings=3 phases=1 xhl=2.040000 xht=2.040000 xlt=0.136000 %imag=0.000 %noloadloss=0.000
~ wdg=1 conn=w kv=2.400 kva=10000.0 %r=0.003000
~ wdg=2 conn=w kv=0.120 kva=1000.0 %r=0.000600
~ wdg=3 conn=w kv=0.120 kva=1000.0 %r=0.000600
new Xfmrcode.cimxfmrcode_xfmr_633_a_1 windings=3 phases=1 xhl=2.040000 xht=2.040000 xlt=0.136000 %imag=0.000 %noloadloss=0.000
~ wdg=1 conn=w kv=2.400 kva=10000.0 %r=0.003000
~ wdg=2 conn=w kv=0.120 kva=1000.0 %r=0.000600
~ wdg=3 conn=w kv=0.120 kva=1000.0 %r=0.000600
new Xfmrcode.cimxfmrcode_xfmr_632_c_3 windings=3 phases=1 xhl=2.040000 xht=2.040000 xlt=0.136000 %imag=0.000 %noloadloss=0.000
~ wdg=1 conn=w kv=2.400 kva=10000.0 %r=0.003000
~ wdg=2 conn=w kv=0.120 kva=1000.0 %r=0.000600
~ wdg=3 conn=w kv=0.120 kva=1000.0 %r=0.000600
new Xfmrcode.cimxfmrcode_xfmr_633_a_2 windings=3 phases=1 xhl=2.040000 xht=2.040000 xlt=0.136000 %imag=0.000 %noloadloss=0.000
~ wdg=1 conn=w kv=2.400 kva=10000.0 %r=0.003000
~ wdg=2 conn=w kv=0.120 kva=1000.0 %r=0.000600
~ wdg=3 conn=w kv=0.120 kva=1000.0 %r=0.000600
new Xfmrcode.cimxfmrcode_xfmr_632_c_4 windings=3 phases=1 xhl=2.040000 xht=2.040000 xlt=0.136000 %imag=0.000 %noloadloss=0.000
~ wdg=1 conn=w kv=2.400 kva=10000.0 %r=0.003000
~ wdg=2 conn=w kv=0.120 kva=1000.0 %r=0.000600
~ wdg=3 conn=w kv=0.120 kva=1000.0 %r=0.000600
new Xfmrcode.cimxfmrcode_xfmr_632_c_5 windings=3 phases=1 xhl=2.040000 xht=2.040000 xlt=0.136000 %imag=0.000 %noloadloss=0.000
~ wdg=1 conn=w kv=2.400 kva=10000.0 %r=0.003000
~ wdg=2 conn=w kv=0.120 kva=1000.0 %r=0.000600
~ wdg=3 conn=w kv=0.120 kva=1000.0 %r=0.000600
new Xfmrcode.cimxfmrcode_xfmr_680_a_3 windings=3 phases=1 xhl=2.040000 xht=2.040000 xlt=0.136000 %imag=0.000 %noloadloss=0.000
~ wdg=1 conn=w kv=2.400 kva=10000.0 %r=0.003000
~ wdg=2 conn=w kv=0.120 kva=1000.0 %r=0.000600
~ wdg=3 conn=w kv=0.120 kva=1000.0 %r=0.000600
new Xfmrcode.cimxfmrcode_xfmr_680_a_4 windings=3 phases=1 xhl=2.040000 xht=2.040000 xlt=0.136000 %imag=0.000 %noloadloss=0.000
~ wdg=1 conn=w kv=2.400 kva=10000.0 %r=0.003000
~ wdg=2 conn=w kv=0.120 kva=1000.0 %r=0.000600
~ wdg=3 conn=w kv=0.120 kva=1000.0 %r=0.000600
new Xfmrcode.cimxfmrcode_xfmr_680_a_5 windings=3 phases=1 xhl=2.040000 xht=2.040000 xlt=0.136000 %imag=0.000 %noloadloss=0.000
~ wdg=1 conn=w kv=2.400 kva=10000.0 %r=0.003000
~ wdg=2 conn=w kv=0.120 kva=1000.0 %r=0.000600
~ wdg=3 conn=w kv=0.120 kva=1000.0 %r=0.000600
new Xfmrcode.cimxfmrcode_xfmr_645_c_5 windings=3 phases=1 xhl=2.040000 xht=2.040000 xlt=0.136000 %imag=0.000 %noloadloss=0.000
~ wdg=1 conn=w kv=2.400 kva=10000.0 %r=0.003000
~ wdg=2 conn=w kv=0.120 kva=1000.0 %r=0.000600
~ wdg=3 conn=w kv=0.120 kva=1000.0 %r=0.000600
new Xfmrcode.cimxfmrcode_xfmr_680_a_1 windings=3 phases=1 xhl=2.040000 xht=2.040000 xlt=0.136000 %imag=0.000 %noloadloss=0.000
~ wdg=1 conn=w kv=2.400 kva=10000.0 %r=0.003000
~ wdg=2 conn=w kv=0.120 kva=1000.0 %r=0.000600
~ wdg=3 conn=w kv=0.120 kva=1000.0 %r=0.000600
new Xfmrcode.cimxfmrcode_xfmr_645_c_4 windings=3 phases=1 xhl=2.040000 xht=2.040000 xlt=0.136000 %imag=0.000 %noloadloss=0.000
~ wdg=1 conn=w kv=2.400 kva=10000.0 %r=0.003000
~ wdg=2 conn=w kv=0.120 kva=1000.0 %r=0.000600
~ wdg=3 conn=w kv=0.120 kva=1000.0 %r=0.000600
new Xfmrcode.cimxfmrcode_xfmr_680_a_2 windings=3 phases=1 xhl=2.040000 xht=2.040000 xlt=0.136000 %imag=0.000 %noloadloss=0.000
~ wdg=1 conn=w kv=2.400 kva=10000.0 %r=0.003000
~ wdg=2 conn=w kv=0.120 kva=1000.0 %r=0.000600
~ wdg=3 conn=w kv=0.120 kva=1000.0 %r=0.000600
new Xfmrcode.cimxfmrcode_xfmr_645_c_3 windings=3 phases=1 xhl=2.040000 xht=2.040000 xlt=0.136000 %imag=0.000 %noloadloss=0.000
~ wdg=1 conn=w kv=2.400 kva=10000.0 %r=0.003000
~ wdg=2 conn=w kv=0.120 kva=1000.0 %r=0.000600
~ wdg=3 conn=w kv=0.120 kva=1000.0 %r=0.000600
new Xfmrcode.cimxfmrcode_xfmr_675_c_5 windings=3 phases=1 xhl=2.040000 xht=2.040000 xlt=0.136000 %imag=0.000 %noloadloss=0.000
~ wdg=1 conn=w kv=2.400 kva=10000.0 %r=0.003000
~ wdg=2 conn=w kv=0.120 kva=1000.0 %r=0.000600
~ wdg=3 conn=w kv=0.120 kva=1000.0 %r=0.000600
new Xfmrcode.cimxfmrcode_xfmr_645_c_2 windings=3 phases=1 xhl=2.040000 xht=2.040000 xlt=0.136000 %imag=0.000 %noloadloss=0.000
~ wdg=1 conn=w kv=2.400 kva=10000.0 %r=0.003000
~ wdg=2 conn=w kv=0.120 kva=1000.0 %r=0.000600
~ wdg=3 conn=w kv=0.120 kva=1000.0 %r=0.000600
new Xfmrcode.cimxfmrcode_xfmr_645_c_1 windings=3 phases=1 xhl=2.040000 xht=2.040000 xlt=0.136000 %imag=0.000 %noloadloss=0.000
~ wdg=1 conn=w kv=2.400 kva=10000.0 %r=0.003000
~ wdg=2 conn=w kv=0.120 kva=1000.0 %r=0.000600
~ wdg=3 conn=w kv=0.120 kva=1000.0 %r=0.000600
new Xfmrcode.cimxfmrcode_xfmr_675_c_3 windings=3 phases=1 xhl=2.040000 xht=2.040000 xlt=0.136000 %imag=0.000 %noloadloss=0.000
~ wdg=1 conn=w kv=2.400 kva=10000.0 %r=0.003000
~ wdg=2 conn=w kv=0.120 kva=1000.0 %r=0.000600
~ wdg=3 conn=w kv=0.120 kva=1000.0 %r=0.000600
new Xfmrcode.cimxfmrcode_xfmr_675_c_4 windings=3 phases=1 xhl=2.040000 xht=2.040000 xlt=0.136000 %imag=0.000 %noloadloss=0.000
~ wdg=1 conn=w kv=2.400 kva=10000.0 %r=0.003000
~ wdg=2 conn=w kv=0.120 kva=1000.0 %r=0.000600
~ wdg=3 conn=w kv=0.120 kva=1000.0 %r=0.000600
new Xfmrcode.cimxfmrcode_xfmr_675_c_1 windings=3 phases=1 xhl=2.040000 xht=2.040000 xlt=0.136000 %imag=0.000 %noloadloss=0.000
~ wdg=1 conn=w kv=2.400 kva=10000.0 %r=0.003000
~ wdg=2 conn=w kv=0.120 kva=1000.0 %r=0.000600
~ wdg=3 conn=w kv=0.120 kva=1000.0 %r=0.000600
new Xfmrcode.cimxfmrcode_xfmr_692_c_5 windings=3 phases=1 xhl=2.040000 xht=2.040000 xlt=0.136000 %imag=0.000 %noloadloss=0.000
~ wdg=1 conn=w kv=2.400 kva=10000.0 %r=0.003000
~ wdg=2 conn=w kv=0.120 kva=1000.0 %r=0.000600
~ wdg=3 conn=w kv=0.120 kva=1000.0 %r=0.000600
new Xfmrcode.cimxfmrcode_xfmr_675_c_2 windings=3 phases=1 xhl=2.040000 xht=2.040000 xlt=0.136000 %imag=0.000 %noloadloss=0.000
~ wdg=1 conn=w kv=2.400 kva=10000.0 %r=0.003000
~ wdg=2 conn=w kv=0.120 kva=1000.0 %r=0.000600
~ wdg=3 conn=w kv=0.120 kva=1000.0 %r=0.000600
new Xfmrcode.cimxfmrcode_xfmr_692_c_4 windings=3 phases=1 xhl=2.040000 xht=2.040000 xlt=0.136000 %imag=0.000 %noloadloss=0.000
~ wdg=1 conn=w kv=2.400 kva=10000.0 %r=0.003000
~ wdg=2 conn=w kv=0.120 kva=1000.0 %r=0.000600
~ wdg=3 conn=w kv=0.120 kva=1000.0 %r=0.000600
new Xfmrcode.cimxfmrcode_xfmr_692_c_1 windings=3 phases=1 xhl=2.040000 xht=2.040000 xlt=0.136000 %imag=0.000 %noloadloss=0.000
~ wdg=1 conn=w kv=2.400 kva=10000.0 %r=0.003000
~ wdg=2 conn=w kv=0.120 kva=1000.0 %r=0.000600
~ wdg=3 conn=w kv=0.120 kva=1000.0 %r=0.000600
new Xfmrcode.cimxfmrcode_xfmr_692_c_3 windings=3 phases=1 xhl=2.040000 xht=2.040000 xlt=0.136000 %imag=0.000 %noloadloss=0.000
~ wdg=1 conn=w kv=2.400 kva=10000.0 %r=0.003000
~ wdg=2 conn=w kv=0.120 kva=1000.0 %r=0.000600
~ wdg=3 conn=w kv=0.120 kva=1000.0 %r=0.000600
new Xfmrcode.cimxfmrcode_xfmr_692_c_2 windings=3 phases=1 xhl=2.040000 xht=2.040000 xlt=0.136000 %imag=0.000 %noloadloss=0.000
~ wdg=1 conn=w kv=2.400 kva=10000.0 %r=0.003000
~ wdg=2 conn=w kv=0.120 kva=1000.0 %r=0.000600
~ wdg=3 conn=w kv=0.120 kva=1000.0 %r=0.000600
new Xfmrcode.cimxfmrcode_xfmr_671_c_5 windings=3 phases=1 xhl=2.040000 xht=2.040000 xlt=0.136000 %imag=0.000 %noloadloss=0.000
~ wdg=1 conn=w kv=2.400 kva=10000.0 %r=0.003000
~ wdg=2 conn=w kv=0.120 kva=1000.0 %r=0.000600
~ wdg=3 conn=w kv=0.120 kva=1000.0 %r=0.000600
new Xfmrcode.cimxfmrcode_xfmr_684_a_4 windings=3 phases=1 xhl=2.040000 xht=2.040000 xlt=0.136000 %imag=0.000 %noloadloss=0.000
~ wdg=1 conn=w kv=2.400 kva=10000.0 %r=0.003000
~ wdg=2 conn=w kv=0.120 kva=1000.0 %r=0.000600
~ wdg=3 conn=w kv=0.120 kva=1000.0 %r=0.000600
new Xfmrcode.cimxfmrcode_xfmr_684_a_3 windings=3 phases=1 xhl=2.040000 xht=2.040000 xlt=0.136000 %imag=0.000 %noloadloss=0.000
~ wdg=1 conn=w kv=2.400 kva=10000.0 %r=0.003000
~ wdg=2 conn=w kv=0.120 kva=1000.0 %r=0.000600
~ wdg=3 conn=w kv=0.120 kva=1000.0 %r=0.000600
new Xfmrcode.cimxfmrcode_xfmr_671_c_3 windings=3 phases=1 xhl=2.040000 xht=2.040000 xlt=0.136000 %imag=0.000 %noloadloss=0.000
~ wdg=1 conn=w kv=2.400 kva=10000.0 %r=0.003000
~ wdg=2 conn=w kv=0.120 kva=1000.0 %r=0.000600
~ wdg=3 conn=w kv=0.120 kva=1000.0 %r=0.000600
new Xfmrcode.cimxfmrcode_xfmr_671_c_4 windings=3 phases=1 xhl=2.040000 xht=2.040000 xlt=0.136000 %imag=0.000 %noloadloss=0.000
~ wdg=1 conn=w kv=2.400 kva=10000.0 %r=0.003000
~ wdg=2 conn=w kv=0.120 kva=1000.0 %r=0.000600
~ wdg=3 conn=w kv=0.120 kva=1000.0 %r=0.000600
new Xfmrcode.cimxfmrcode_xfmr_684_a_5 windings=3 phases=1 xhl=2.040000 xht=2.040000 xlt=0.136000 %imag=0.000 %noloadloss=0.000
~ wdg=1 conn=w kv=2.400 kva=10000.0 %r=0.003000
~ wdg=2 conn=w kv=0.120 kva=1000.0 %r=0.000600
~ wdg=3 conn=w kv=0.120 kva=1000.0 %r=0.000600
new Xfmrcode.cimxfmrcode_xfmr_671_c_1 windings=3 phases=1 xhl=2.040000 xht=2.040000 xlt=0.136000 %imag=0.000 %noloadloss=0.000
~ wdg=1 conn=w kv=2.400 kva=10000.0 %r=0.003000
~ wdg=2 conn=w kv=0.120 kva=1000.0 %r=0.000600
~ wdg=3 conn=w kv=0.120 kva=1000.0 %r=0.000600
new Xfmrcode.cimxfmrcode_xfmr_671_c_2 windings=3 phases=1 xhl=2.040000 xht=2.040000 xlt=0.136000 %imag=0.000 %noloadloss=0.000
~ wdg=1 conn=w kv=2.400 kva=10000.0 %r=0.003000
~ wdg=2 conn=w kv=0.120 kva=1000.0 %r=0.000600
~ wdg=3 conn=w kv=0.120 kva=1000.0 %r=0.000600
new Xfmrcode.cimxfmrcode_xfmr_632_b_1 windings=3 phases=1 xhl=2.040000 xht=2.040000 xlt=0.136000 %imag=0.000 %noloadloss=0.000
~ wdg=1 conn=w kv=2.400 kva=10000.0 %r=0.003000
~ wdg=2 conn=w kv=0.120 kva=1000.0 %r=0.000600
~ wdg=3 conn=w kv=0.120 kva=1000.0 %r=0.000600
new Xfmrcode.cimxfmrcode_xfmr_684_a_2 windings=3 phases=1 xhl=2.040000 xht=2.040000 xlt=0.136000 %imag=0.000 %noloadloss=0.000
~ wdg=1 conn=w kv=2.400 kva=10000.0 %r=0.003000
~ wdg=2 conn=w kv=0.120 kva=1000.0 %r=0.000600
~ wdg=3 conn=w kv=0.120 kva=1000.0 %r=0.000600
new Xfmrcode.cimxfmrcode_xfmr_632_b_2 windings=3 phases=1 xhl=2.040000 xht=2.040000 xlt=0.136000 %imag=0.000 %noloadloss=0.000
~ wdg=1 conn=w kv=2.400 kva=10000.0 %r=0.003000
~ wdg=2 conn=w kv=0.120 kva=1000.0 %r=0.000600
~ wdg=3 conn=w kv=0.120 kva=1000.0 %r=0.000600
new Xfmrcode.cimxfmrcode_xfmr_684_a_1 windings=3 phases=1 xhl=2.040000 xht=2.040000 xlt=0.136000 %imag=0.000 %noloadloss=0.000
~ wdg=1 conn=w kv=2.400 kva=10000.0 %r=0.003000
~ wdg=2 conn=w kv=0.120 kva=1000.0 %r=0.000600
~ wdg=3 conn=w kv=0.120 kva=1000.0 %r=0.000600
new Xfmrcode.cimxfmrcode_xfmr_632_b_3 windings=3 phases=1 xhl=2.040000 xht=2.040000 xlt=0.136000 %imag=0.000 %noloadloss=0.000
~ wdg=1 conn=w kv=2.400 kva=10000.0 %r=0.003000
~ wdg=2 conn=w kv=0.120 kva=1000.0 %r=0.000600
~ wdg=3 conn=w kv=0.120 kva=1000.0 %r=0.000600
new Xfmrcode.cimxfmrcode_xfmr_632_b_4 windings=3 phases=1 xhl=2.040000 xht=2.040000 xlt=0.136000 %imag=0.000 %noloadloss=0.000
~ wdg=1 conn=w kv=2.400 kva=10000.0 %r=0.003000
~ wdg=2 conn=w kv=0.120 kva=1000.0 %r=0.000600
~ wdg=3 conn=w kv=0.120 kva=1000.0 %r=0.000600
new Xfmrcode.cimxfmrcode_xfmr_632_b_5 windings=3 phases=1 xhl=2.040000 xht=2.040000 xlt=0.136000 %imag=0.000 %noloadloss=0.000
~ wdg=1 conn=w kv=2.400 kva=10000.0 %r=0.003000
~ wdg=2 conn=w kv=0.120 kva=1000.0 %r=0.000600
~ wdg=3 conn=w kv=0.120 kva=1000.0 %r=0.000600
new Xfmrcode.cimxfmrcode_xfmr_680_b_2 windings=3 phases=1 xhl=2.040000 xht=2.040000 xlt=0.136000 %imag=0.000 %noloadloss=0.000
~ wdg=1 conn=w kv=2.400 kva=10000.0 %r=0.003000
~ wdg=2 conn=w kv=0.120 kva=1000.0 %r=0.000600
~ wdg=3 conn=w kv=0.120 kva=1000.0 %r=0.000600
new Xfmrcode.cimxfmrcode_xfmr_680_b_3 windings=3 phases=1 xhl=2.040000 xht=2.040000 xlt=0.136000 %imag=0.000 %noloadloss=0.000
~ wdg=1 conn=w kv=2.400 kva=10000.0 %r=0.003000
~ wdg=2 conn=w kv=0.120 kva=1000.0 %r=0.000600
~ wdg=3 conn=w kv=0.120 kva=1000.0 %r=0.000600
new Xfmrcode.cimxfmrcode_xfmr_680_b_4 windings=3 phases=1 xhl=2.040000 xht=2.040000 xlt=0.136000 %imag=0.000 %noloadloss=0.000
~ wdg=1 conn=w kv=2.400 kva=10000.0 %r=0.003000
~ wdg=2 conn=w kv=0.120 kva=1000.0 %r=0.000600
~ wdg=3 conn=w kv=0.120 kva=1000.0 %r=0.000600
new Xfmrcode.cimxfmrcode_xfmr_680_b_5 windings=3 phases=1 xhl=2.040000 xht=2.040000 xlt=0.136000 %imag=0.000 %noloadloss=0.000
~ wdg=1 conn=w kv=2.400 kva=10000.0 %r=0.003000
~ wdg=2 conn=w kv=0.120 kva=1000.0 %r=0.000600
~ wdg=3 conn=w kv=0.120 kva=1000.0 %r=0.000600
new Xfmrcode.cimxfmrcode_xfmr_680_b_1 windings=3 phases=1 xhl=2.040000 xht=2.040000 xlt=0.136000 %imag=0.000 %noloadloss=0.000
~ wdg=1 conn=w kv=2.400 kva=10000.0 %r=0.003000
~ wdg=2 conn=w kv=0.120 kva=1000.0 %r=0.000600
~ wdg=3 conn=w kv=0.120 kva=1000.0 %r=0.000600
new Xfmrcode.cimxfmrcode_xfmr_675_b_4 windings=3 phases=1 xhl=2.040000 xht=2.040000 xlt=0.136000 %imag=0.000 %noloadloss=0.000
~ wdg=1 conn=w kv=2.400 kva=10000.0 %r=0.003000
~ wdg=2 conn=w kv=0.120 kva=1000.0 %r=0.000600
~ wdg=3 conn=w kv=0.120 kva=1000.0 %r=0.000600
new Xfmrcode.cimxfmrcode_xfmr_675_b_5 windings=3 phases=1 xhl=2.040000 xht=2.040000 xlt=0.136000 %imag=0.000 %noloadloss=0.000
~ wdg=1 conn=w kv=2.400 kva=10000.0 %r=0.003000
~ wdg=2 conn=w kv=0.120 kva=1000.0 %r=0.000600
~ wdg=3 conn=w kv=0.120 kva=1000.0 %r=0.000600
new Xfmrcode.cimxfmrcode_xfmr_675_b_2 windings=3 phases=1 xhl=2.040000 xht=2.040000 xlt=0.136000 %imag=0.000 %noloadloss=0.000
~ wdg=1 conn=w kv=2.400 kva=10000.0 %r=0.003000
~ wdg=2 conn=w kv=0.120 kva=1000.0 %r=0.000600
~ wdg=3 conn=w kv=0.120 kva=1000.0 %r=0.000600
new Xfmrcode.cimxfmrcode_xfmr_675_b_3 windings=3 phases=1 xhl=2.040000 xht=2.040000 xlt=0.136000 %imag=0.000 %noloadloss=0.000
~ wdg=1 conn=w kv=2.400 kva=10000.0 %r=0.003000
~ wdg=2 conn=w kv=0.120 kva=1000.0 %r=0.000600
~ wdg=3 conn=w kv=0.120 kva=1000.0 %r=0.000600
new Xfmrcode.cimxfmrcode_xfmr_675_b_1 windings=3 phases=1 xhl=2.040000 xht=2.040000 xlt=0.136000 %imag=0.000 %noloadloss=0.000
~ wdg=1 conn=w kv=2.400 kva=10000.0 %r=0.003000
~ wdg=2 conn=w kv=0.120 kva=1000.0 %r=0.000600
~ wdg=3 conn=w kv=0.120 kva=1000.0 %r=0.000600
new Xfmrcode.cimxfmrcode_xfmr_633_c_5 windings=3 phases=1 xhl=2.040000 xht=2.040000 xlt=0.136000 %imag=0.000 %noloadloss=0.000
~ wdg=1 conn=w kv=2.400 kva=10000.0 %r=0.003000
~ wdg=2 conn=w kv=0.120 kva=1000.0 %r=0.000600
~ wdg=3 conn=w kv=0.120 kva=1000.0 %r=0.000600
new Xfmrcode.cimxfmrcode_xfmr_692_a_1 windings=3 phases=1 xhl=2.040000 xht=2.040000 xlt=0.136000 %imag=0.000 %noloadloss=0.000
~ wdg=1 conn=w kv=2.400 kva=10000.0 %r=0.003000
~ wdg=2 conn=w kv=0.120 kva=1000.0 %r=0.000600
~ wdg=3 conn=w kv=0.120 kva=1000.0 %r=0.000600
new Xfmrcode.cimxfmrcode_xfmr_633_c_3 windings=3 phases=1 xhl=2.040000 xht=2.040000 xlt=0.136000 %imag=0.000 %noloadloss=0.000
~ wdg=1 conn=w kv=2.400 kva=10000.0 %r=0.003000
~ wdg=2 conn=w kv=0.120 kva=1000.0 %r=0.000600
~ wdg=3 conn=w kv=0.120 kva=1000.0 %r=0.000600
new Xfmrcode.cimxfmrcode_xfmr_632_a_1 windings=3 phases=1 xhl=2.040000 xht=2.040000 xlt=0.136000 %imag=0.000 %noloadloss=0.000
~ wdg=1 conn=w kv=2.400 kva=10000.0 %r=0.003000
~ wdg=2 conn=w kv=0.120 kva=1000.0 %r=0.000600
~ wdg=3 conn=w kv=0.120 kva=1000.0 %r=0.000600
new Xfmrcode.cimxfmrcode_xfmr_633_c_4 windings=3 phases=1 xhl=2.040000 xht=2.040000 xlt=0.136000 %imag=0.000 %noloadloss=0.000
~ wdg=1 conn=w kv=2.400 kva=10000.0 %r=0.003000
~ wdg=2 conn=w kv=0.120 kva=1000.0 %r=0.000600
~ wdg=3 conn=w kv=0.120 kva=1000.0 %r=0.000600
new Xfmrcode.cimxfmrcode_xfmr_632_a_2 windings=3 phases=1 xhl=2.040000 xht=2.040000 xlt=0.136000 %imag=0.000 %noloadloss=0.000
~ wdg=1 conn=w kv=2.400 kva=10000.0 %r=0.003000
~ wdg=2 conn=w kv=0.120 kva=1000.0 %r=0.000600
~ wdg=3 conn=w kv=0.120 kva=1000.0 %r=0.000600
new Xfmrcode.cimxfmrcode_xfmr_633_c_1 windings=3 phases=1 xhl=2.040000 xht=2.040000 xlt=0.136000 %imag=0.000 %noloadloss=0.000
~ wdg=1 conn=w kv=2.400 kva=10000.0 %r=0.003000
~ wdg=2 conn=w kv=0.120 kva=1000.0 %r=0.000600
~ wdg=3 conn=w kv=0.120 kva=1000.0 %r=0.000600
new Xfmrcode.cimxfmrcode_xfmr_632_a_3 windings=3 phases=1 xhl=2.040000 xht=2.040000 xlt=0.136000 %imag=0.000 %noloadloss=0.000
~ wdg=1 conn=w kv=2.400 kva=10000.0 %r=0.003000
~ wdg=2 conn=w kv=0.120 kva=1000.0 %r=0.000600
~ wdg=3 conn=w kv=0.120 kva=1000.0 %r=0.000600
new Xfmrcode.cimxfmrcode_xfmr_633_c_2 windings=3 phases=1 xhl=2.040000 xht=2.040000 xlt=0.136000 %imag=0.000 %noloadloss=0.000
~ wdg=1 conn=w kv=2.400 kva=10000.0 %r=0.003000
~ wdg=2 conn=w kv=0.120 kva=1000.0 %r=0.000600
~ wdg=3 conn=w kv=0.120 kva=1000.0 %r=0.000600
new Xfmrcode.cimxfmrcode_xfmr_632_a_4 windings=3 phases=1 xhl=2.040000 xht=2.040000 xlt=0.136000 %imag=0.000 %noloadloss=0.000
~ wdg=1 conn=w kv=2.400 kva=10000.0 %r=0.003000
~ wdg=2 conn=w kv=0.120 kva=1000.0 %r=0.000600
~ wdg=3 conn=w kv=0.120 kva=1000.0 %r=0.000600
new Xfmrcode.cimxfmrcode_xfmr_680_c_5 windings=3 phases=1 xhl=2.040000 xht=2.040000 xlt=0.136000 %imag=0.000 %noloadloss=0.000
~ wdg=1 conn=w kv=2.400 kva=10000.0 %r=0.003000
~ wdg=2 conn=w kv=0.120 kva=1000.0 %r=0.000600
~ wdg=3 conn=w kv=0.120 kva=1000.0 %r=0.000600
new Xfmrcode.cimxfmrcode_xfmr_632_a_5 windings=3 phases=1 xhl=2.040000 xht=2.040000 xlt=0.136000 %imag=0.000 %noloadloss=0.000
~ wdg=1 conn=w kv=2.400 kva=10000.0 %r=0.003000
~ wdg=2 conn=w kv=0.120 kva=1000.0 %r=0.000600
~ wdg=3 conn=w kv=0.120 kva=1000.0 %r=0.000600
new Xfmrcode.cimxfmrcode_xfmr_680_c_1 windings=3 phases=1 xhl=2.040000 xht=2.040000 xlt=0.136000 %imag=0.000 %noloadloss=0.000
~ wdg=1 conn=w kv=2.400 kva=10000.0 %r=0.003000
~ wdg=2 conn=w kv=0.120 kva=1000.0 %r=0.000600
~ wdg=3 conn=w kv=0.120 kva=1000.0 %r=0.000600
new Xfmrcode.cimxfmrcode_xfmr_680_c_2 windings=3 phases=1 xhl=2.040000 xht=2.040000 xlt=0.136000 %imag=0.000 %noloadloss=0.000
~ wdg=1 conn=w kv=2.400 kva=10000.0 %r=0.003000
~ wdg=2 conn=w kv=0.120 kva=1000.0 %r=0.000600
~ wdg=3 conn=w kv=0.120 kva=1000.0 %r=0.000600
new Xfmrcode.cimxfmrcode_xfmr_680_c_3 windings=3 phases=1 xhl=2.040000 xht=2.040000 xlt=0.136000 %imag=0.000 %noloadloss=0.000
~ wdg=1 conn=w kv=2.400 kva=10000.0 %r=0.003000
~ wdg=2 conn=w kv=0.120 kva=1000.0 %r=0.000600
~ wdg=3 conn=w kv=0.120 kva=1000.0 %r=0.000600
new Xfmrcode.cimxfmrcode_xfmr_680_c_4 windings=3 phases=1 xhl=2.040000 xht=2.040000 xlt=0.136000 %imag=0.000 %noloadloss=0.000
~ wdg=1 conn=w kv=2.400 kva=10000.0 %r=0.003000
~ wdg=2 conn=w kv=0.120 kva=1000.0 %r=0.000600
~ wdg=3 conn=w kv=0.120 kva=1000.0 %r=0.000600
new Xfmrcode.cimxfmrcode_xfmr_675_a_5 windings=3 phases=1 xhl=2.040000 xht=2.040000 xlt=0.136000 %imag=0.000 %noloadloss=0.000
~ wdg=1 conn=w kv=2.400 kva=10000.0 %r=0.003000
~ wdg=2 conn=w kv=0.120 kva=1000.0 %r=0.000600
~ wdg=3 conn=w kv=0.120 kva=1000.0 %r=0.000600
new Xfmrcode.cimxfmrcode_xfmr_675_a_3 windings=3 phases=1 xhl=2.040000 xht=2.040000 xlt=0.136000 %imag=0.000 %noloadloss=0.000
~ wdg=1 conn=w kv=2.400 kva=10000.0 %r=0.003000
~ wdg=2 conn=w kv=0.120 kva=1000.0 %r=0.000600
~ wdg=3 conn=w kv=0.120 kva=1000.0 %r=0.000600
new Xfmrcode.cimxfmrcode_xfmr_675_a_4 windings=3 phases=1 xhl=2.040000 xht=2.040000 xlt=0.136000 %imag=0.000 %noloadloss=0.000
~ wdg=1 conn=w kv=2.400 kva=10000.0 %r=0.003000
~ wdg=2 conn=w kv=0.120 kva=1000.0 %r=0.000600
~ wdg=3 conn=w kv=0.120 kva=1000.0 %r=0.000600
new Xfmrcode.cimxfmrcode_xfmr_675_a_1 windings=3 phases=1 xhl=2.040000 xht=2.040000 xlt=0.136000 %imag=0.000 %noloadloss=0.000
~ wdg=1 conn=w kv=2.400 kva=10000.0 %r=0.003000
~ wdg=2 conn=w kv=0.120 kva=1000.0 %r=0.000600
~ wdg=3 conn=w kv=0.120 kva=1000.0 %r=0.000600
new Xfmrcode.cimxfmrcode_xfmr_675_a_2 windings=3 phases=1 xhl=2.040000 xht=2.040000 xlt=0.136000 %imag=0.000 %noloadloss=0.000
~ wdg=1 conn=w kv=2.400 kva=10000.0 %r=0.003000
~ wdg=2 conn=w kv=0.120 kva=1000.0 %r=0.000600
~ wdg=3 conn=w kv=0.120 kva=1000.0 %r=0.000600
new Xfmrcode.cimxfmrcode_xfmr_692_a_3 windings=3 phases=1 xhl=2.040000 xht=2.040000 xlt=0.136000 %imag=0.000 %noloadloss=0.000
~ wdg=1 conn=w kv=2.400 kva=10000.0 %r=0.003000
~ wdg=2 conn=w kv=0.120 kva=1000.0 %r=0.000600
~ wdg=3 conn=w kv=0.120 kva=1000.0 %r=0.000600
new Xfmrcode.cimxfmrcode_xfmr_692_a_2 windings=3 phases=1 xhl=2.040000 xht=2.040000 xlt=0.136000 %imag=0.000 %noloadloss=0.000
~ wdg=1 conn=w kv=2.400 kva=10000.0 %r=0.003000
~ wdg=2 conn=w kv=0.120 kva=1000.0 %r=0.000600
~ wdg=3 conn=w kv=0.120 kva=1000.0 %r=0.000600
new Xfmrcode.cimxfmrcode_xfmr_692_a_5 windings=3 phases=1 xhl=2.040000 xht=2.040000 xlt=0.136000 %imag=0.000 %noloadloss=0.000
~ wdg=1 conn=w kv=2.400 kva=10000.0 %r=0.003000
~ wdg=2 conn=w kv=0.120 kva=1000.0 %r=0.000600
~ wdg=3 conn=w kv=0.120 kva=1000.0 %r=0.000600
new Xfmrcode.cimxfmrcode_xfmr_692_a_4 windings=3 phases=1 xhl=2.040000 xht=2.040000 xlt=0.136000 %imag=0.000 %noloadloss=0.000
~ wdg=1 conn=w kv=2.400 kva=10000.0 %r=0.003000
~ wdg=2 conn=w kv=0.120 kva=1000.0 %r=0.000600
~ wdg=3 conn=w kv=0.120 kva=1000.0 %r=0.000600












new Line.ol_632_b_xfmr_632_b_2 phases=1 bus1=meter_632_b.2 bus2=xfmr_meter_632_b_2.2 length=50.001 linecode=1p_oh_code9 units=ft
~ normamps=400.00 emergamps=600.00
new Line.ol_632_b_xfmr_632_b_3 phases=1 bus1=meter_632_b.2 bus2=xfmr_meter_632_b_3.2 length=50.001 linecode=1p_oh_code9 units=ft
~ normamps=400.00 emergamps=600.00
new Line.ol_632_b_xfmr_632_b_4 phases=1 bus1=meter_632_b.2 bus2=xfmr_meter_632_b_4.2 length=50.001 linecode=1p_oh_code9 units=ft
~ normamps=400.00 emergamps=600.00
new Line.ol_632_b_xfmr_632_b_5 phases=1 bus1=meter_632_b.2 bus2=xfmr_meter_632_b_5.2 length=50.001 linecode=1p_oh_code9 units=ft
~ normamps=400.00 emergamps=600.00
new Line.ol_632_b_xfmr_632_b_1 phases=1 bus1=meter_632_b.2 bus2=xfmr_meter_632_b_1.2 length=50.001 linecode=1p_oh_code9 units=ft
~ normamps=400.00 emergamps=600.00
new Line.trip_line_645_b_h_5 phases=2 bus1=trip_node_645_b_1.1 bus2=trip_load_645_b_h_5.1 length=50.001 linecode=2p_code10 units=ft
~ normamps=400.00 emergamps=600.00
new Line.trip_line_645_b_h_6 phases=2 bus1=trip_node_645_b_1.1 bus2=trip_load_645_b_h_6.1 length=50.001 linecode=2p_code10 units=ft
~ normamps=400.00 emergamps=600.00
new Line.trip_line_645_b_h_7 phases=2 bus1=trip_node_645_b_1.1 bus2=trip_load_645_b_h_7.1 length=50.001 linecode=2p_code10 units=ft
~ normamps=400.00 emergamps=600.00
new Line.trip_line_645_b_h_8 phases=2 bus1=trip_node_645_b_1.1 bus2=trip_load_645_b_h_8.1 length=50.001 linecode=2p_code10 units=ft
~ normamps=400.00 emergamps=600.00
new Line.trip_line_645_b_h_9 phases=2 bus1=trip_node_645_b_2.1 bus2=trip_load_645_b_h_9.1 length=50.001 linecode=2p_code10 units=ft
~ normamps=400.00 emergamps=600.00
new Line.trip_line_645_b_h_1 phases=2 bus1=trip_node_645_b_1.1 bus2=trip_load_645_b_h_1.1 length=50.001 linecode=2p_code10 units=ft
~ normamps=400.00 emergamps=600.00
new Line.trip_line_645_b_h_2 phases=2 bus1=trip_node_645_b_1.1 bus2=trip_load_645_b_h_2.1 length=50.001 linecode=2p_code10 units=ft
~ normamps=400.00 emergamps=600.00
new Line.trip_line_645_b_h_3 phases=2 bus1=trip_node_645_b_1.1 bus2=trip_load_645_b_h_3.1 length=50.001 linecode=2p_code10 units=ft
~ normamps=400.00 emergamps=600.00
new Line.trip_line_645_b_h_4 phases=2 bus1=trip_node_645_b_1.1 bus2=trip_load_645_b_h_4.1 length=50.001 linecode=2p_code10 units=ft
~ normamps=400.00 emergamps=600.00
new Line.ol_684_c_xfmr_684_c_5 phases=1 bus1=meter_684_c.3 bus2=xfmr_meter_684_c_5.3 length=50.001 linecode=1p_oh_code3 units=ft
~ normamps=400.00 emergamps=600.00
new Line.ol_684_c_xfmr_684_c_4 phases=1 bus1=meter_684_c.3 bus2=xfmr_meter_684_c_4.3 length=50.001 linecode=1p_oh_code3 units=ft
~ normamps=400.00 emergamps=600.00
new Line.ol_684_c_xfmr_684_c_3 phases=1 bus1=meter_684_c.3 bus2=xfmr_meter_684_c_3.3 length=50.001 linecode=1p_oh_code3 units=ft
~ normamps=400.00 emergamps=600.00
new Line.ol_684_c_xfmr_684_c_2 phases=1 bus1=meter_684_c.3 bus2=xfmr_meter_684_c_2.3 length=50.001 linecode=1p_oh_code3 units=ft
~ normamps=400.00 emergamps=600.00
new Line.ol_684_c_xfmr_684_c_1 phases=1 bus1=meter_684_c.3 bus2=xfmr_meter_684_c_1.3 length=50.001 linecode=1p_oh_code3 units=ft
~ normamps=400.00 emergamps=600.00
new Line.ol_675_c_xfmr_675_c_1 phases=1 bus1=meter_675_c.3 bus2=xfmr_meter_675_c_1.3 length=50.001 linecode=1p_oh_code3 units=ft
~ normamps=400.00 emergamps=600.00
new Line.trip_line_692_c_h_40 phases=2 bus1=trip_node_692_c_5.1 bus2=trip_load_692_c_h_40.1 length=50.001 linecode=2p_code10 units=ft
~ normamps=400.00 emergamps=600.00
new Line.ol_675_c_xfmr_675_c_2 phases=1 bus1=meter_675_c.3 bus2=xfmr_meter_675_c_2.3 length=50.001 linecode=1p_oh_code3 units=ft
~ normamps=400.00 emergamps=600.00
new Line.ol_675_c_xfmr_675_c_3 phases=1 bus1=meter_675_c.3 bus2=xfmr_meter_675_c_3.3 length=50.001 linecode=1p_oh_code3 units=ft
~ normamps=400.00 emergamps=600.00
new Line.ol_675_c_xfmr_675_c_4 phases=1 bus1=meter_675_c.3 bus2=xfmr_meter_675_c_4.3 length=50.001 linecode=1p_oh_code3 units=ft
~ normamps=400.00 emergamps=600.00
new Line.ol_675_c_xfmr_675_c_5 phases=1 bus1=meter_675_c.3 bus2=xfmr_meter_675_c_5.3 length=50.001 linecode=1p_oh_code3 units=ft
~ normamps=400.00 emergamps=600.00
new Line.ol_671_c phases=1 bus1=n671.3 bus2=meter_671_c.3 length=50.001 linecode=1p_oh_code3 units=ft
~ normamps=400.00 emergamps=600.00
new Line.ol_671_a phases=1 bus1=n671.1 bus2=meter_671_a.1 length=50.001 linecode=1p_oh_code8 units=ft
~ normamps=400.00 emergamps=600.00
new Line.ol_671_b phases=1 bus1=n671.2 bus2=meter_671_b.2 length=50.001 linecode=1p_oh_code9 units=ft
~ normamps=400.00 emergamps=600.00
new Line.trip_line_632_a_h_6 phases=2 bus1=trip_node_632_a_1.1 bus2=trip_load_632_a_h_6.1 length=50.001 linecode=2p_code10 units=ft
~ normamps=400.00 emergamps=600.00
new Line.trip_line_632_a_h_7 phases=2 bus1=trip_node_632_a_1.1 bus2=trip_load_632_a_h_7.1 length=50.001 linecode=2p_code10 units=ft
~ normamps=400.00 emergamps=600.00
new Line.trip_line_632_a_h_4 phases=2 bus1=trip_node_632_a_1.1 bus2=trip_load_632_a_h_4.1 length=50.001 linecode=2p_code10 units=ft
~ normamps=400.00 emergamps=600.00
new Line.trip_line_632_a_h_5 phases=2 bus1=trip_node_632_a_1.1 bus2=trip_load_632_a_h_5.1 length=50.001 linecode=2p_code10 units=ft
~ normamps=400.00 emergamps=600.00
new Line.trip_line_632_a_h_2 phases=2 bus1=trip_node_632_a_1.1 bus2=trip_load_632_a_h_2.1 length=50.001 linecode=2p_code10 units=ft
~ normamps=400.00 emergamps=600.00
new Line.trip_line_632_a_h_3 phases=2 bus1=trip_node_632_a_1.1 bus2=trip_load_632_a_h_3.1 length=50.001 linecode=2p_code10 units=ft
~ normamps=400.00 emergamps=600.00
new Line.trip_line_632_a_h_1 phases=2 bus1=trip_node_632_a_1.1 bus2=trip_load_632_a_h_1.1 length=50.001 linecode=2p_code10 units=ft
~ normamps=400.00 emergamps=600.00
new Line.trip_line_632_a_h_8 phases=2 bus1=trip_node_632_a_1.1 bus2=trip_load_632_a_h_8.1 length=50.001 linecode=2p_code10 units=ft
~ normamps=400.00 emergamps=600.00
new Line.trip_line_632_a_h_9 phases=2 bus1=trip_node_632_a_2.1 bus2=trip_load_632_a_h_9.1 length=50.001 linecode=2p_code10 units=ft
~ normamps=400.00 emergamps=600.00
new Line.trip_line_671_a_h_40 phases=2 bus1=trip_node_671_a_5.1 bus2=trip_load_671_a_h_40.1 length=50.001 linecode=2p_code10 units=ft
~ normamps=400.00 emergamps=600.00
new Line.trip_line_692_b_h_12 phases=2 bus1=trip_node_692_b_2.1 bus2=trip_load_692_b_h_12.1 length=50.001 linecode=2p_code10 units=ft
~ normamps=400.00 emergamps=600.00
new Line.trip_line_692_b_h_13 phases=2 bus1=trip_node_692_b_2.1 bus2=trip_load_692_b_h_13.1 length=50.001 linecode=2p_code10 units=ft
~ normamps=400.00 emergamps=600.00
new Line.trip_line_692_b_h_10 phases=2 bus1=trip_node_692_b_2.1 bus2=trip_load_692_b_h_10.1 length=50.001 linecode=2p_code10 units=ft
~ normamps=400.00 emergamps=600.00
new Line.trip_line_692_b_h_11 phases=2 bus1=trip_node_692_b_2.1 bus2=trip_load_692_b_h_11.1 length=50.001 linecode=2p_code10 units=ft
~ normamps=400.00 emergamps=600.00
new Line.trip_line_692_b_h_16 phases=2 bus1=trip_node_692_b_2.1 bus2=trip_load_692_b_h_16.1 length=50.001 linecode=2p_code10 units=ft
~ normamps=400.00 emergamps=600.00
new Line.trip_line_692_b_h_17 phases=2 bus1=trip_node_692_b_3.1 bus2=trip_load_692_b_h_17.1 length=50.001 linecode=2p_code10 units=ft
~ normamps=400.00 emergamps=600.00
new Line.trip_line_692_b_h_14 phases=2 bus1=trip_node_692_b_2.1 bus2=trip_load_692_b_h_14.1 length=50.001 linecode=2p_code10 units=ft
~ normamps=400.00 emergamps=600.00
new Line.trip_line_692_b_h_15 phases=2 bus1=trip_node_692_b_2.1 bus2=trip_load_692_b_h_15.1 length=50.001 linecode=2p_code10 units=ft
~ normamps=400.00 emergamps=600.00
new Line.trip_line_692_b_h_18 phases=2 bus1=trip_node_692_b_3.1 bus2=trip_load_692_b_h_18.1 length=50.001 linecode=2p_code10 units=ft
~ normamps=400.00 emergamps=600.00
new Line.trip_line_692_b_h_19 phases=2 bus1=trip_node_692_b_3.1 bus2=trip_load_692_b_h_19.1 length=50.001 linecode=2p_code10 units=ft
~ normamps=400.00 emergamps=600.00
new Line.trip_line_692_c_h_25 phases=2 bus1=trip_node_692_c_4.1 bus2=trip_load_692_c_h_25.1 length=50.001 linecode=2p_code10 units=ft
~ normamps=400.00 emergamps=600.00
new Line.trip_line_692_c_h_24 phases=2 bus1=trip_node_692_c_3.1 bus2=trip_load_692_c_h_24.1 length=50.001 linecode=2p_code10 units=ft
~ normamps=400.00 emergamps=600.00
new Line.trip_line_692_c_h_23 phases=2 bus1=trip_node_692_c_3.1 bus2=trip_load_692_c_h_23.1 length=50.001 linecode=2p_code10 units=ft
~ normamps=400.00 emergamps=600.00
new Line.trip_line_692_c_h_22 phases=2 bus1=trip_node_692_c_3.1 bus2=trip_load_692_c_h_22.1 length=50.001 linecode=2p_code10 units=ft
~ normamps=400.00 emergamps=600.00
new Line.trip_line_692_c_h_21 phases=2 bus1=trip_node_692_c_3.1 bus2=trip_load_692_c_h_21.1 length=50.001 linecode=2p_code10 units=ft
~ normamps=400.00 emergamps=600.00
new Line.trip_line_692_c_h_20 phases=2 bus1=trip_node_692_c_3.1 bus2=trip_load_692_c_h_20.1 length=50.001 linecode=2p_code10 units=ft
~ normamps=400.00 emergamps=600.00
new Line.trip_line_632_b_h_40 phases=2 bus1=trip_node_632_b_5.1 bus2=trip_load_632_b_h_40.1 length=50.001 linecode=2p_code10 units=ft
~ normamps=400.00 emergamps=600.00
new Line.trip_line_692_c_h_29 phases=2 bus1=trip_node_692_c_4.1 bus2=trip_load_692_c_h_29.1 length=50.001 linecode=2p_code10 units=ft
~ normamps=400.00 emergamps=600.00
new Line.trip_line_692_c_h_28 phases=2 bus1=trip_node_692_c_4.1 bus2=trip_load_692_c_h_28.1 length=50.001 linecode=2p_code10 units=ft
~ normamps=400.00 emergamps=600.00
new Line.trip_line_692_c_h_27 phases=2 bus1=trip_node_692_c_4.1 bus2=trip_load_692_c_h_27.1 length=50.001 linecode=2p_code10 units=ft
~ normamps=400.00 emergamps=600.00
new Line.trip_line_692_c_h_26 phases=2 bus1=trip_node_692_c_4.1 bus2=trip_load_692_c_h_26.1 length=50.001 linecode=2p_code10 units=ft
~ normamps=400.00 emergamps=600.00
new Line.trip_line_671_a_h_31 phases=2 bus1=trip_node_671_a_4.1 bus2=trip_load_671_a_h_31.1 length=50.001 linecode=2p_code10 units=ft
~ normamps=400.00 emergamps=600.00
new Line.trip_line_671_a_h_30 phases=2 bus1=trip_node_671_a_4.1 bus2=trip_load_671_a_h_30.1 length=50.001 linecode=2p_code10 units=ft
~ normamps=400.00 emergamps=600.00
new Line.trip_line_692_b_h_20 phases=2 bus1=trip_node_692_b_3.1 bus2=trip_load_692_b_h_20.1 length=50.001 linecode=2p_code10 units=ft
~ normamps=400.00 emergamps=600.00
new Line.trip_line_632_b_h_39 phases=2 bus1=trip_node_632_b_5.1 bus2=trip_load_632_b_h_39.1 length=50.001 linecode=2p_code10 units=ft
~ normamps=400.00 emergamps=600.00
new Line.trip_line_632_b_h_38 phases=2 bus1=trip_node_632_b_5.1 bus2=trip_load_632_b_h_38.1 length=50.001 linecode=2p_code10 units=ft
~ normamps=400.00 emergamps=600.00
new Line.trip_line_632_b_h_37 phases=2 bus1=trip_node_632_b_5.1 bus2=trip_load_632_b_h_37.1 length=50.001 linecode=2p_code10 units=ft
~ normamps=400.00 emergamps=600.00
new Line.trip_line_671_a_h_35 phases=2 bus1=trip_node_671_a_5.1 bus2=trip_load_671_a_h_35.1 length=50.001 linecode=2p_code10 units=ft
~ normamps=400.00 emergamps=600.00
new Line.trip_line_692_b_h_23 phases=2 bus1=trip_node_692_b_3.1 bus2=trip_load_692_b_h_23.1 length=50.001 linecode=2p_code10 units=ft
~ normamps=400.00 emergamps=600.00
new Line.trip_line_632_b_h_36 phases=2 bus1=trip_node_632_b_5.1 bus2=trip_load_632_b_h_36.1 length=50.001 linecode=2p_code10 units=ft
~ normamps=400.00 emergamps=600.00
new Line.trip_line_671_a_h_34 phases=2 bus1=trip_node_671_a_5.1 bus2=trip_load_671_a_h_34.1 length=50.001 linecode=2p_code10 units=ft
~ normamps=400.00 emergamps=600.00
new Line.trip_line_692_b_h_24 phases=2 bus1=trip_node_692_b_3.1 bus2=trip_load_692_b_h_24.1 length=50.001 linecode=2p_code10 units=ft
~ normamps=400.00 emergamps=600.00
new Line.trip_line_632_b_h_35 phases=2 bus1=trip_node_632_b_5.1 bus2=trip_load_632_b_h_35.1 length=50.001 linecode=2p_code10 units=ft
~ normamps=400.00 emergamps=600.00
new Line.trip_line_671_a_h_33 phases=2 bus1=trip_node_671_a_5.1 bus2=trip_load_671_a_h_33.1 length=50.001 linecode=2p_code10 units=ft
~ normamps=400.00 emergamps=600.00
new Line.trip_line_692_b_h_21 phases=2 bus1=trip_node_692_b_3.1 bus2=trip_load_692_b_h_21.1 length=50.001 linecode=2p_code10 units=ft
~ normamps=400.00 emergamps=600.00
new Line.trip_line_632_b_h_34 phases=2 bus1=trip_node_632_b_5.1 bus2=trip_load_632_b_h_34.1 length=50.001 linecode=2p_code10 units=ft
~ normamps=400.00 emergamps=600.00
new Line.trip_line_671_a_h_32 phases=2 bus1=trip_node_671_a_4.1 bus2=trip_load_671_a_h_32.1 length=50.001 linecode=2p_code10 units=ft
~ normamps=400.00 emergamps=600.00
new Line.trip_line_692_b_h_22 phases=2 bus1=trip_node_692_b_3.1 bus2=trip_load_692_b_h_22.1 length=50.001 linecode=2p_code10 units=ft
~ normamps=400.00 emergamps=600.00
new Line.trip_line_671_a_h_39 phases=2 bus1=trip_node_671_a_5.1 bus2=trip_load_671_a_h_39.1 length=50.001 linecode=2p_code10 units=ft
~ normamps=400.00 emergamps=600.00
new Line.trip_line_692_b_h_27 phases=2 bus1=trip_node_692_b_4.1 bus2=trip_load_692_b_h_27.1 length=50.001 linecode=2p_code10 units=ft
~ normamps=400.00 emergamps=600.00
new Line.trip_line_671_a_h_38 phases=2 bus1=trip_node_671_a_5.1 bus2=trip_load_671_a_h_38.1 length=50.001 linecode=2p_code10 units=ft
~ normamps=400.00 emergamps=600.00
new Line.trip_line_692_b_h_28 phases=2 bus1=trip_node_692_b_4.1 bus2=trip_load_692_b_h_28.1 length=50.001 linecode=2p_code10 units=ft
~ normamps=400.00 emergamps=600.00
new Line.trip_line_671_a_h_37 phases=2 bus1=trip_node_671_a_5.1 bus2=trip_load_671_a_h_37.1 length=50.001 linecode=2p_code10 units=ft
~ normamps=400.00 emergamps=600.00
new Line.trip_line_692_b_h_25 phases=2 bus1=trip_node_692_b_4.1 bus2=trip_load_692_b_h_25.1 length=50.001 linecode=2p_code10 units=ft
~ normamps=400.00 emergamps=600.00
new Line.trip_line_671_a_h_36 phases=2 bus1=trip_node_671_a_5.1 bus2=trip_load_671_a_h_36.1 length=50.001 linecode=2p_code10 units=ft
~ normamps=400.00 emergamps=600.00
new Line.trip_line_692_b_h_26 phases=2 bus1=trip_node_692_b_4.1 bus2=trip_load_692_b_h_26.1 length=50.001 linecode=2p_code10 units=ft
~ normamps=400.00 emergamps=600.00
new Line.trip_line_692_b_h_29 phases=2 bus1=trip_node_692_b_4.1 bus2=trip_load_692_b_h_29.1 length=50.001 linecode=2p_code10 units=ft
~ normamps=400.00 emergamps=600.00
new Line.trip_line_692_c_h_36 phases=2 bus1=trip_node_692_c_5.1 bus2=trip_load_692_c_h_36.1 length=50.001 linecode=2p_code10 units=ft
~ normamps=400.00 emergamps=600.00
new Line.trip_line_692_c_h_35 phases=2 bus1=trip_node_692_c_5.1 bus2=trip_load_692_c_h_35.1 length=50.001 linecode=2p_code10 units=ft
~ normamps=400.00 emergamps=600.00
new Line.trip_line_692_c_h_34 phases=2 bus1=trip_node_692_c_5.1 bus2=trip_load_692_c_h_34.1 length=50.001 linecode=2p_code10 units=ft
~ normamps=400.00 emergamps=600.00
new Line.trip_line_692_c_h_33 phases=2 bus1=trip_node_692_c_5.1 bus2=trip_load_692_c_h_33.1 length=50.001 linecode=2p_code10 units=ft
~ normamps=400.00 emergamps=600.00
new Line.trip_line_692_c_h_32 phases=2 bus1=trip_node_692_c_4.1 bus2=trip_load_692_c_h_32.1 length=50.001 linecode=2p_code10 units=ft
~ normamps=400.00 emergamps=600.00
new Line.trip_line_692_c_h_31 phases=2 bus1=trip_node_692_c_4.1 bus2=trip_load_692_c_h_31.1 length=50.001 linecode=2p_code10 units=ft
~ normamps=400.00 emergamps=600.00
new Line.trip_line_692_c_h_30 phases=2 bus1=trip_node_692_c_4.1 bus2=trip_load_692_c_h_30.1 length=50.001 linecode=2p_code10 units=ft
~ normamps=400.00 emergamps=600.00
new Line.trip_line_632_b_h_33 phases=2 bus1=trip_node_632_b_5.1 bus2=trip_load_632_b_h_33.1 length=50.001 linecode=2p_code10 units=ft
~ normamps=400.00 emergamps=600.00
new Line.trip_line_632_b_h_32 phases=2 bus1=trip_node_632_b_4.1 bus2=trip_load_632_b_h_32.1 length=50.001 linecode=2p_code10 units=ft
~ normamps=400.00 emergamps=600.00
new Line.trip_line_632_b_h_31 phases=2 bus1=trip_node_632_b_4.1 bus2=trip_load_632_b_h_31.1 length=50.001 linecode=2p_code10 units=ft
~ normamps=400.00 emergamps=600.00
new Line.trip_line_632_b_h_30 phases=2 bus1=trip_node_632_b_4.1 bus2=trip_load_632_b_h_30.1 length=50.001 linecode=2p_code10 units=ft
~ normamps=400.00 emergamps=600.00
new Line.trip_line_692_c_h_39 phases=2 bus1=trip_node_692_c_5.1 bus2=trip_load_692_c_h_39.1 length=50.001 linecode=2p_code10 units=ft
~ normamps=400.00 emergamps=600.00
new Line.trip_line_692_c_h_38 phases=2 bus1=trip_node_692_c_5.1 bus2=trip_load_692_c_h_38.1 length=50.001 linecode=2p_code10 units=ft
~ normamps=400.00 emergamps=600.00
new Line.trip_line_692_c_h_37 phases=2 bus1=trip_node_692_c_5.1 bus2=trip_load_692_c_h_37.1 length=50.001 linecode=2p_code10 units=ft
~ normamps=400.00 emergamps=600.00
new Line.trip_line_645_c_h_19 phases=2 bus1=trip_node_645_c_3.1 bus2=trip_load_645_c_h_19.1 length=50.001 linecode=2p_code10 units=ft
~ normamps=400.00 emergamps=600.00
new Line.trip_line_645_c_h_2 phases=2 bus1=trip_node_645_c_1.1 bus2=trip_load_645_c_h_2.1 length=50.001 linecode=2p_code10 units=ft
~ normamps=400.00 emergamps=600.00
new Line.trip_line_671_a_h_20 phases=2 bus1=trip_node_671_a_3.1 bus2=trip_load_671_a_h_20.1 length=50.001 linecode=2p_code10 units=ft
~ normamps=400.00 emergamps=600.00
new Line.trip_line_692_b_h_30 phases=2 bus1=trip_node_692_b_4.1 bus2=trip_load_692_b_h_30.1 length=50.001 linecode=2p_code10 units=ft
~ normamps=400.00 emergamps=600.00
new Line.ol_684_a phases=1 bus1=n684.1 bus2=meter_684_a.1 length=50.001 linecode=1p_oh_code8 units=ft
~ normamps=400.00 emergamps=600.00
new Line.trip_line_632_b_h_29 phases=2 bus1=trip_node_632_b_4.1 bus2=trip_load_632_b_h_29.1 length=50.001 linecode=2p_code10 units=ft
~ normamps=400.00 emergamps=600.00
new Line.trip_line_645_c_h_3 phases=2 bus1=trip_node_645_c_1.1 bus2=trip_load_645_c_h_3.1 length=50.001 linecode=2p_code10 units=ft
~ normamps=400.00 emergamps=600.00
new Line.trip_line_692_b_h_31 phases=2 bus1=trip_node_692_b_4.1 bus2=trip_load_692_b_h_31.1 length=50.001 linecode=2p_code10 units=ft
~ normamps=400.00 emergamps=600.00
new Line.trip_line_632_b_h_28 phases=2 bus1=trip_node_632_b_4.1 bus2=trip_load_632_b_h_28.1 length=50.001 linecode=2p_code10 units=ft
~ normamps=400.00 emergamps=600.00
new Line.trip_line_632_b_h_27 phases=2 bus1=trip_node_632_b_4.1 bus2=trip_load_632_b_h_27.1 length=50.001 linecode=2p_code10 units=ft
~ normamps=400.00 emergamps=600.00
new Line.trip_line_645_c_h_1 phases=2 bus1=trip_node_645_c_1.1 bus2=trip_load_645_c_h_1.1 length=50.001 linecode=2p_code10 units=ft
~ normamps=400.00 emergamps=600.00
new Line.trip_line_632_b_h_26 phases=2 bus1=trip_node_632_b_4.1 bus2=trip_load_632_b_h_26.1 length=50.001 linecode=2p_code10 units=ft
~ normamps=400.00 emergamps=600.00
new Line.trip_line_645_c_h_15 phases=2 bus1=trip_node_645_c_2.1 bus2=trip_load_645_c_h_15.1 length=50.001 linecode=2p_code10 units=ft
~ normamps=400.00 emergamps=600.00
new Line.trip_line_671_a_h_24 phases=2 bus1=trip_node_671_a_3.1 bus2=trip_load_671_a_h_24.1 length=50.001 linecode=2p_code10 units=ft
~ normamps=400.00 emergamps=600.00
new Line.trip_line_692_b_h_34 phases=2 bus1=trip_node_692_b_5.1 bus2=trip_load_692_b_h_34.1 length=50.001 linecode=2p_code10 units=ft
~ normamps=400.00 emergamps=600.00
new Line.trip_line_632_b_h_25 phases=2 bus1=trip_node_632_b_4.1 bus2=trip_load_632_b_h_25.1 length=50.001 linecode=2p_code10 units=ft
~ normamps=400.00 emergamps=600.00
new Line.trip_line_645_c_h_16 phases=2 bus1=trip_node_645_c_2.1 bus2=trip_load_645_c_h_16.1 length=50.001 linecode=2p_code10 units=ft
~ normamps=400.00 emergamps=600.00
new Line.trip_line_671_a_h_23 phases=2 bus1=trip_node_671_a_3.1 bus2=trip_load_671_a_h_23.1 length=50.001 linecode=2p_code10 units=ft
~ normamps=400.00 emergamps=600.00
new Line.trip_line_692_b_h_35 phases=2 bus1=trip_node_692_b_5.1 bus2=trip_load_692_b_h_35.1 length=50.001 linecode=2p_code10 units=ft
~ normamps=400.00 emergamps=600.00
new Line.trip_line_632_b_h_24 phases=2 bus1=trip_node_632_b_3.1 bus2=trip_load_632_b_h_24.1 length=50.001 linecode=2p_code10 units=ft
~ normamps=400.00 emergamps=600.00
new Line.trip_line_645_c_h_17 phases=2 bus1=trip_node_645_c_3.1 bus2=trip_load_645_c_h_17.1 length=50.001 linecode=2p_code10 units=ft
~ normamps=400.00 emergamps=600.00
new Line.trip_line_671_a_h_22 phases=2 bus1=trip_node_671_a_3.1 bus2=trip_load_671_a_h_22.1 length=50.001 linecode=2p_code10 units=ft
~ normamps=400.00 emergamps=600.00
new Line.trip_line_692_b_h_32 phases=2 bus1=trip_node_692_b_4.1 bus2=trip_load_692_b_h_32.1 length=50.001 linecode=2p_code10 units=ft
~ normamps=400.00 emergamps=600.00
new Line.ol_684_c phases=1 bus1=n684.3 bus2=meter_684_c.3 length=50.001 linecode=1p_oh_code3 units=ft
~ normamps=400.00 emergamps=600.00
new Line.trip_line_632_b_h_23 phases=2 bus1=trip_node_632_b_3.1 bus2=trip_load_632_b_h_23.1 length=50.001 linecode=2p_code10 units=ft
~ normamps=400.00 emergamps=600.00
new Line.trip_line_645_c_h_18 phases=2 bus1=trip_node_645_c_3.1 bus2=trip_load_645_c_h_18.1 length=50.001 linecode=2p_code10 units=ft
~ normamps=400.00 emergamps=600.00
new Line.trip_line_671_a_h_21 phases=2 bus1=trip_node_671_a_3.1 bus2=trip_load_671_a_h_21.1 length=50.001 linecode=2p_code10 units=ft
~ normamps=400.00 emergamps=600.00
new Line.trip_line_692_b_h_33 phases=2 bus1=trip_node_692_b_5.1 bus2=trip_load_692_b_h_33.1 length=50.001 linecode=2p_code10 units=ft
~ normamps=400.00 emergamps=600.00
new Line.trip_line_671_a_h_28 phases=2 bus1=trip_node_671_a_4.1 bus2=trip_load_671_a_h_28.1 length=50.001 linecode=2p_code10 units=ft
~ normamps=400.00 emergamps=600.00
new Line.trip_line_692_b_h_38 phases=2 bus1=trip_node_692_b_5.1 bus2=trip_load_692_b_h_38.1 length=50.001 linecode=2p_code10 units=ft
~ normamps=400.00 emergamps=600.00
new Line.trip_line_671_a_h_27 phases=2 bus1=trip_node_671_a_4.1 bus2=trip_load_671_a_h_27.1 length=50.001 linecode=2p_code10 units=ft
~ normamps=400.00 emergamps=600.00
new Line.trip_line_692_b_h_39 phases=2 bus1=trip_node_692_b_5.1 bus2=trip_load_692_b_h_39.1 length=50.001 linecode=2p_code10 units=ft
~ normamps=400.00 emergamps=600.00
new Line.trip_line_645_c_h_8 phases=2 bus1=trip_node_645_c_1.1 bus2=trip_load_645_c_h_8.1 length=50.001 linecode=2p_code10 units=ft
~ normamps=400.00 emergamps=600.00
new Line.trip_line_671_a_h_26 phases=2 bus1=trip_node_671_a_4.1 bus2=trip_load_671_a_h_26.1 length=50.001 linecode=2p_code10 units=ft
~ normamps=400.00 emergamps=600.00
new Line.trip_line_692_b_h_36 phases=2 bus1=trip_node_692_b_5.1 bus2=trip_load_692_b_h_36.1 length=50.001 linecode=2p_code10 units=ft
~ normamps=400.00 emergamps=600.00
new Line.trip_line_645_c_h_9 phases=2 bus1=trip_node_645_c_2.1 bus2=trip_load_645_c_h_9.1 length=50.001 linecode=2p_code10 units=ft
~ normamps=400.00 emergamps=600.00
new Line.trip_line_671_a_h_25 phases=2 bus1=trip_node_671_a_4.1 bus2=trip_load_671_a_h_25.1 length=50.001 linecode=2p_code10 units=ft
~ normamps=400.00 emergamps=600.00
new Line.trip_line_692_b_h_37 phases=2 bus1=trip_node_692_b_5.1 bus2=trip_load_692_b_h_37.1 length=50.001 linecode=2p_code10 units=ft
~ normamps=400.00 emergamps=600.00
new Line.trip_line_645_c_h_6 phases=2 bus1=trip_node_645_c_1.1 bus2=trip_load_645_c_h_6.1 length=50.001 linecode=2p_code10 units=ft
~ normamps=400.00 emergamps=600.00
new Line.trip_line_645_c_h_7 phases=2 bus1=trip_node_645_c_1.1 bus2=trip_load_645_c_h_7.1 length=50.001 linecode=2p_code10 units=ft
~ normamps=400.00 emergamps=600.00
new Line.trip_line_645_c_h_4 phases=2 bus1=trip_node_645_c_1.1 bus2=trip_load_645_c_h_4.1 length=50.001 linecode=2p_code10 units=ft
~ normamps=400.00 emergamps=600.00
new Line.trip_line_645_c_h_5 phases=2 bus1=trip_node_645_c_1.1 bus2=trip_load_645_c_h_5.1 length=50.001 linecode=2p_code10 units=ft
~ normamps=400.00 emergamps=600.00
new Line.trip_line_671_a_h_29 phases=2 bus1=trip_node_671_a_4.1 bus2=trip_load_671_a_h_29.1 length=50.001 linecode=2p_code10 units=ft
~ normamps=400.00 emergamps=600.00
new Line.trip_line_632_b_h_22 phases=2 bus1=trip_node_632_b_3.1 bus2=trip_load_632_b_h_22.1 length=50.001 linecode=2p_code10 units=ft
~ normamps=400.00 emergamps=600.00
new Line.trip_line_645_c_h_11 phases=2 bus1=trip_node_645_c_2.1 bus2=trip_load_645_c_h_11.1 length=50.001 linecode=2p_code10 units=ft
~ normamps=400.00 emergamps=600.00
new Line.trip_line_632_b_h_21 phases=2 bus1=trip_node_632_b_3.1 bus2=trip_load_632_b_h_21.1 length=50.001 linecode=2p_code10 units=ft
~ normamps=400.00 emergamps=600.00
new Line.trip_line_645_c_h_12 phases=2 bus1=trip_node_645_c_2.1 bus2=trip_load_645_c_h_12.1 length=50.001 linecode=2p_code10 units=ft
~ normamps=400.00 emergamps=600.00
new Line.trip_line_632_b_h_20 phases=2 bus1=trip_node_632_b_3.1 bus2=trip_load_632_b_h_20.1 length=50.001 linecode=2p_code10 units=ft
~ normamps=400.00 emergamps=600.00
new Line.trip_line_645_c_h_13 phases=2 bus1=trip_node_645_c_2.1 bus2=trip_load_645_c_h_13.1 length=50.001 linecode=2p_code10 units=ft
~ normamps=400.00 emergamps=600.00
new Line.trip_line_645_c_h_14 phases=2 bus1=trip_node_645_c_2.1 bus2=trip_load_645_c_h_14.1 length=50.001 linecode=2p_code10 units=ft
~ normamps=400.00 emergamps=600.00
new Line.trip_line_645_c_h_10 phases=2 bus1=trip_node_645_c_2.1 bus2=trip_load_645_c_h_10.1 length=50.001 linecode=2p_code10 units=ft
~ normamps=400.00 emergamps=600.00
new Line.trip_line_632_b_h_19 phases=2 bus1=trip_node_632_b_3.1 bus2=trip_load_632_b_h_19.1 length=50.001 linecode=2p_code10 units=ft
~ normamps=400.00 emergamps=600.00
new Line.trip_line_632_b_h_18 phases=2 bus1=trip_node_632_b_3.1 bus2=trip_load_632_b_h_18.1 length=50.001 linecode=2p_code10 units=ft
~ normamps=400.00 emergamps=600.00
new Line.trip_line_632_b_h_17 phases=2 bus1=trip_node_632_b_3.1 bus2=trip_load_632_b_h_17.1 length=50.001 linecode=2p_code10 units=ft
~ normamps=400.00 emergamps=600.00
...